test/data/case14.pm.json
{
  "baseMVA": 100.0,
  "branch": {
    "1": {
      "angmax": 6.283185307179586,
      "angmin": -6.283185307179586,
      "b_fr": 0.0264,
      "b_to": 0.0264,
      "br_r": 0.01938,
      "br_status": 1,
      "br_x": 0.05917,
      "f_bus": 1,
      "g_fr": 0.0,
      "g_to": 0.0,
      "index": 1,
      "shift": 0.0,
      "source_id": [
        "branch",
        1
      ],
      "t_bus": 2,
      "tap": 1.0,
      "transformer": false
    },
    "10": {
      "angmax": 6.283185307179586,
      "angmin": -6.283185307179586,
      "b_fr": 0.0,
      "b_to": 0.0,
      "br_r": 0.0,
      "br_status": 1,
      "br_x": 0.25202,
      "f_bus": 5,
      "g_fr": 0.0,
      "g_to": 0.0,
      "index": 10,
      "shift": 0.0,
      "source_id": [
        "branch",
        10
      ],
      "t_bus": 6,
      "tap": 0.932,
      "transformer": true
    },
    "11": {
      "angmax": 6.283185307179586,
      "angmin": -6.283185307179586,
      "b_fr": 0.0,
      "b_to": 0.0,
      "br_r": 0.09498,
      "br_status": 1,
      "br_x": 0.1989,
      "f_bus": 6,
      "g_fr": 0.0,
      "g_to": 0.0,
      "index": 11,
      "shift": 0.0,
      "source_id": [
        "branch",
        11
      ],
      "t_bus": 11,
      "tap": 1.0,
      "transformer": false
    },
    "12": {
      "angmax": 6.283185307179586,
      "angmin": -6.283185307179586,
      "b_fr": 0.0,
      "b_to": 0.0,
      "br_r": 0.12291,
      "br_status": 1,
      "br_x": 0.25581,
      "f_bus": 6,
      "g_fr": 0.0,
      "g_to": 0.0,
      "index": 12,
      "shift": 0.0,
      "source_id": [
        "branch",
        12
      ],
      "t_bus": 12,
      "tap": 1.0,
      "transformer": false
    },
    "13": {
      "angmax": 6.283185307179586,
      "angmin": -6.283185307179586,
      "b_fr": 0.0,
      "b_to": 0.0,
      "br_r": 0.06615,
      "br_status": 1,
      "br_x": 0.13027,
      "f_bus": 6,
      "g_fr": 0.0,
      "g_to": 0.0,
      "index": 13,
      "shift": 0.0,
      "source_id": [
        "branch",
        13
      ],
      "t_bus": 13,
      "tap": 1.0,
      "transformer": false
    },
    "14": {
      "angmax": 6.283185307179586,
      "angmin": -6.283185307179586,
      "b_fr": 0.0,
      "b_to": 0.0,
      "br_r": 0.0,
      "br_status": 1,
      "br_x": 0.17615,
      "f_bus": 7,
      "g_fr": 0.0,
      "g_to": 0.0,
      "index": 14,
      "shift": 0.0,
      "source_id": [
        "branch",
        14
      ],
      "t_bus": 8,
      "tap": 1.0,
      "transformer": false
    },
    "15": {
      "angmax": 6.283185307179586,
      "angmin": -6.283185307179586,
      "b_fr": 0.0,
      "b_to": 0.0,
      "br_r": 0.0,
      "br_status": 1,
      "br_x": 0.11001,
      "f_bus": 7,
      "g_fr": 0.0,
      "g_to": 0.0,
      "index": 15,
      "shift": 0.0,
      "source_id": [
        "branch",
        15
      ],
      "t_bus": 9,
      "tap": 1.0,
      "transformer": false
    },
    "16": {
      "angmax": 6.283185307179586,
      "angmin": -6.283185307179586,
      "b_fr": 0.0,
      "b_to": 0.0,
      "br_r": 0.03181,
      "br_status": 1,
      "br_x": 0.0845,
      "f_bus": 9,
      "g_fr": 0.0,
      "g_to": 0.0,
      "index": 16,
      "shift": 0.0,
      "source_id": [
        "branch",
        16
      ],
      "t_bus": 10,
      "tap": 1.0,
      "transformer": false
    },
    "17": {
      "angmax": 6.283185307179586,
      "angmin": -6.283185307179586,
      "b_fr": 0.0,
      "b_to": 0.0,
      "br_r": 0.12711,
      "br_status": 1,
      "br_x": 0.27038,
      "f_bus": 9,
      "g_fr": 0.0,
      "g_to": 0.0,
      "index": 17,
      "shift": 0.0,
      "source_id": [
        "branch",
        17
      ],
      "t_bus": 14,
      "tap": 1.0,
      "transformer": false
    },
    "18": {
      "angmax": 6.283185307179586,
      "angmin": -6.283185307179586,
      "b_fr": 0.0,
      "b_to": 0.0,
      "br_r": 0.08205,
      "br_status": 1,
      "br_x": 0.19207,
      "f_bus": 10,
      "g_fr": 0.0,
      "g_to": 0.0,
      "index": 18,
      "shift": 0.0,
      "source_id": [
        "branch",
        18
      ],
      "t_bus": 11,
      "tap": 1.0,
      "transformer": false
    },
    "19": {
      "angmax": 6.283185307179586,
      "angmin": -6.283185307179586,
      "b_fr": 0.0,
      "b_to": 0.0,
      "br_r": 0.22092,
      "br_status": 1,
      "br_x": 0.19988,
      "f_bus": 12,
      "g_fr": 0.0,
      "g_to": 0.0,
      "index": 19,
      "shift": 0.0,
      "source_id": [
        "branch",
        19
      ],
      "t_bus": 13,
      "tap": 1.0,
      "transformer": false
    },
    "2": {
      "angmax": 6.283185307179586,
      "angmin": -6.283185307179586,
      "b_fr": 0.0246,
      "b_to": 0.0246,
      "br_r": 0.05403,
      "br_status": 1,
      "br_x": 0.22304,
      "f_bus": 1,
      "g_fr": 0.0,
      "g_to": 0.0,
      "index": 2,
      "shift": 0.0,
      "source_id": [
        "branch",
        2
      ],
      "t_bus": 5,
      "tap": 1.0,
      "transformer": false
    },
    "20": {
      "angmax": 6.283185307179586,
      "angmin": -6.283185307179586,
      "b_fr": 0.0,
      "b_to": 0.0,
      "br_r": 0.17093,
      "br_status": 1,
      "br_x": 0.34802,
      "f_bus": 13,
      "g_fr": 0.0,
      "g_to": 0.0,
      "index": 20,
      "shift": 0.0,
      "source_id": [
        "branch",
        20
      ],
      "t_bus": 14,
      "tap": 1.0,
      "transformer": false
    },
    "3": {
      "angmax": 6.283185307179586,
      "angmin": -6.283185307179586,
      "b_fr": 0.0219,
      "b_to": 0.0219,
      "br_r": 0.04699,
      "br_status": 1,
      "br_x": 0.19797,
      "f_bus": 2,
      "g_fr": 0.0,
      "g_to": 0.0,
      "index": 3,
      "shift": 0.0,
      "source_id": [
        "branch",
        3
      ],
      "t_bus": 3,
      "tap": 1.0,
      "transformer": false
    },
    "4": {
      "angmax": 6.283185307179586,
      "angmin": -6.283185307179586,
      "b_fr": 0.017,
      "b_to": 0.017,
      "br_r": 0.05811,
      "br_status": 1,
      "br_x": 0.17632,
      "f_bus": 2,
      "g_fr": 0.0,
      "g_to": 0.0,
      "index": 4,
      "shift": 0.0,
      "source_id": [
        "branch",
        4
      ],
      "t_bus": 4,
      "tap": 1.0,
      "transformer": false
    },
    "5": {
      "angmax": 6.283185307179586,
      "angmin": -6.283185307179586,
      "b_fr": 0.0173,
      "b_to": 0.0173,
      "br_r": 0.05695,
      "br_status": 1,
      "br_x": 0.17388,
      "f_bus": 2,
      "g_fr": 0.0,
      "g_to": 0.0,
      "index": 5,
      "shift": 0.0,
      "source_id": [
        "branch",
        5
      ],
      "t_bus": 5,
      "tap": 1.0,
      "transformer": false
    },
    "6": {
      "angmax": 6.283185307179586,
      "angmin": -6.283185307179586,
      "b_fr": 0.0064,
      "b_to": 0.0064,
      "br_r": 0.06701,
      "br_status": 1,
      "br_x": 0.17103,
      "f_bus": 3,
      "g_fr": 0.0,
      "g_to": 0.0,
      "index": 6,
      "shift": 0.0,
      "source_id": [
        "branch",
        6
      ],
      "t_bus": 4,
      "tap": 1.0,
      "transformer": false
    },
    "7": {
      "angmax": 6.283185307179586,
      "angmin": -6.283185307179586,
      "b_fr": 0.0,
      "b_to": 0.0,
      "br_r": 0.01335,
      "br_status": 1,
      "br_x": 0.04211,
      "f_bus": 4,
      "g_fr": 0.0,
      "g_to": 0.0,
      "index": 7,
      "shift": 0.0,
      "source_id": [
        "branch",
        7
      ],
      "t_bus": 5,
      "tap": 1.0,
      "transformer": false
    },
    "8": {
      "angmax": 6.283185307179586,
      "angmin": -6.283185307179586,
      "b_fr": 0.0,
      "b_to": 0.0,
      "br_r": 0.0,
      "br_status": 1,
      "br_x": 0.20912,
      "f_bus": 4,
      "g_fr": 0.0,
      "g_to": 0.0,
      "index": 8,
      "shift": 0.0,
      "source_id": [
        "branch",
        8
      ],
      "t_bus": 7,
      "tap": 0.978,
      "transformer": true
    },
    "9": {
      "angmax": 6.283185307179586,
      "angmin": -6.283185307179586,
      "b_fr": 0.0,
      "b_to": 0.0,
      "br_r": 0.0,
      "br_status": 1,
      "br_x": 0.55618,
      "f_bus": 4,
      "g_fr": 0.0,
      "g_to": 0.0,
      "index": 9,
      "shift": 0.0,
      "source_id": [
        "branch",
        9
      ],
      "t_bus": 9,
      "tap": 0.969,
      "transformer": true
    }
  },
  "bus": {
    "1": {
      "area": 1,
      "base_kv": 0.0,
      "bus_i": 1,
      "bus_type": 3,
      "index": 1,
      "name": "Bus 1     HV",
      "source_id": [
        "bus",
        1
      ],
      "va": 0.0,
      "vm": 1.06,
      "vmax": 1.06,
      "vmin": 0.94,
      "zone": 1
    },
    "10": {
      "area": 1,
      "base_kv": 0.0,
      "bus_i": 10,
      "bus_type": 1,
      "index": 10,
      "name": "Bus 10    LV",
      "source_id": [
        "bus",
        10
      ],
      "va": -0.26354471705114374,
      "vm": 1.051,
      "vmax": 1.06,
      "vmin": 0.94,
      "zone": 1
    },
    "11": {
      "area": 1,
      "base_kv": 0.0,
      "bus_i": 11,
      "bus_type": 1,
      "index": 11,
      "name": "Bus 11    LV",
      "source_id": [
        "bus",
        11
      ],
      "va": -0.2581341963699613,
      "vm": 1.057,
      "vmax": 1.06,
      "vmin": 0.94,
      "zone": 1
    },
    "12": {
      "area": 1,
      "base_kv": 0.0,
      "bus_i": 12,
      "bus_type": 1,
      "index": 12,
      "name": "Bus 12    LV",
      "source_id": [
        "bus",
        12
      ],
      "va": -0.2630211182755455,
      "vm": 1.055,
      "vmax": 1.06,
      "vmin": 0.94,
      "zone": 1
    },
    "13": {
      "area": 1,
      "base_kv": 0.0,
      "bus_i": 13,
      "bus_type": 1,
      "index": 13,
      "name": "Bus 13    LV",
      "source_id": [
        "bus",
        13
      ],
      "va": -0.2645919146023404,
      "vm": 1.05,
      "vmax": 1.06,
      "vmin": 0.94,
      "zone": 1
    },
    "14": {
      "area": 1,
      "base_kv": 0.0,
      "bus_i": 14,
      "bus_type": 1,
      "index": 14,
      "name": "Bus 14    LV",
      "source_id": [
        "bus",
        14
      ],
      "va": -0.27995081201989047,
      "vm": 1.036,
      "vmax": 1.06,
      "vmin": 0.94,
      "zone": 1
    },
    "2": {
      "area": 1,
      "base_kv": 0.0,
      "bus_i": 2,
      "bus_type": 2,
      "index": 2,
      "name": "Bus 2     HV",
      "source_id": [
        "bus",
        2
      ],
      "va": -0.08691739674931762,
      "vm": 1.045,
      "vmax": 1.06,
      "vmin": 0.94,
      "zone": 1
    },
    "3": {
      "area": 1,
      "base_kv": 0.0,
      "bus_i": 3,
      "bus_type": 2,
      "index": 3,
      "name": "Bus 3     HV",
      "source_id": [
        "bus",
        3
      ],
      "va": -0.22200588085367873,
      "vm": 1.01,
      "vmax": 1.06,
      "vmin": 0.94,
      "zone": 1
    },
    "4": {
      "area": 1,
      "base_kv": 0.0,
      "bus_i": 4,
      "bus_type": 1,
      "index": 4,
      "name": "Bus 4     HV",
      "source_id": [
        "bus",
        4
      ],
      "va": -0.18029251173101424,
      "vm": 1.019,
      "vmax": 1.06,
      "vmin": 0.94,
      "zone": 1
    },
    "5": {
      "area": 1,
      "base_kv": 0.0,
      "bus_i": 5,
      "bus_type": 1,
      "index": 5,
      "name": "Bus 5     HV",
      "source_id": [
        "bus",
        5
      ],
      "va": -0.15323990832510212,
      "vm": 1.02,
      "vmax": 1.06,
      "vmin": 0.94,
      "zone": 1
    },
    "6": {
      "area": 1,
      "base_kv": 0.0,
      "bus_i": 6,
      "bus_type": 2,
      "index": 6,
      "name": "Bus 6     LV",
      "source_id": [
        "bus",
        6
      ],
      "va": -0.24818581963359368,
      "vm": 1.07,
      "vmax": 1.06,
      "vmin": 0.94,
      "zone": 1
    },
    "7": {
      "area": 1,
      "base_kv": 0.0,
      "bus_i": 7,
      "bus_type": 1,
      "index": 7,
      "name": "Bus 7     ZV",
      "source_id": [
        "bus",
        7
      ],
      "va": -0.23335052099164186,
      "vm": 1.062,
      "vmax": 1.06,
      "vmin": 0.94,
      "zone": 1
    },
    "8": {
      "area": 1,
      "base_kv": 0.0,
      "bus_i": 8,
      "bus_type": 2,
      "index": 8,
      "name": "Bus 8     TV",
      "source_id": [
        "bus",
        8
      ],
      "va": -0.2331759880664424,
      "vm": 1.09,
      "vmax": 1.06,
      "vmin": 0.94,
      "zone": 1
    },
    "9": {
      "area": 1,
      "base_kv": 0.0,
      "bus_i": 9,
      "bus_type": 1,
      "index": 9,
      "name": "Bus 9     LV",
      "source_id": [
        "bus",
        9
      ],
      "va": -0.2607521902479528,
      "vm": 1.056,
      "vmax": 1.06,
      "vmin": 0.94,
      "zone": 1
    }
  },
  "dcline": {},
  "gen": {
    "1": {
      "apf": 0.0,
      "cost": [
        430.292599,
        2000.0,
        0.0
      ],
      "gen_bus": 1,
      "gen_status": 1,
      "index": 1,
      "mbase": 100.0,
      "model": 2,
      "ncost": 3,
      "pc1": 0.0,
      "pc2": 0.0,
      "pg": 2.3240000000000003,
      "pmax": 3.324,
      "pmin": 0.0,
      "qc1max": 0.0,
      "qc1min": 0.0,
      "qc2max": 0.0,
      "qc2min": 0.0,
      "qg": -0.16899999999999998,
      "qmax": 0.1,
      "qmin": 0.0,
      "ramp_10": 0.0,
      "ramp_30": 0.0,
      "ramp_agc": 0.0,
      "ramp_q": 0.0,
      "shutdown": 0.0,
      "source_id": [
        "gen",
        1
      ],
      "startup": 0.0,
      "vg": 1.06
    },
    "2": {
      "apf": 0.0,
      "cost": [
        2500.0,
        2000.0,
        0.0
      ],
      "gen_bus": 2,
      "gen_status": 1,
      "index": 2,
      "mbase": 100.0,
      "model": 2,
      "ncost": 3,
      "pc1": 0.0,
      "pc2": 0.0,
      "pg": 0.4,
      "pmax": 1.4000000000000001,
      "pmin": 0.0,
      "qc1max": 0.0,
      "qc1min": 0.0,
      "qc2max": 0.0,
      "qc2min": 0.0,
      "qg": 0.424,
      "qmax": 0.5,
      "qmin": -0.4,
      "ramp_10": 0.0,
      "ramp_30": 0.0,
      "ramp_agc": 0.0,
      "ramp_q": 0.0,
      "shutdown": 0.0,
      "source_id": [
        "gen",
        2
      ],
      "startup": 0.0,
      "vg": 1.045
    },
    "3": {
      "apf": 0.0,
      "cost": [
        100.0,
        4000.0,
        0.0
      ],
      "gen_bus": 3,
      "gen_status": 1,
      "index": 3,
      "mbase": 100.0,
      "model": 2,
      "ncost": 3,
      "pc1": 0.0,
      "pc2": 0.0,
      "pg": 0.0,
      "pmax": 1.0,
      "pmin": 0.0,
      "qc1max": 0.0,
      "qc1min": 0.0,
      "qc2max": 0.0,
      "qc2min": 0.0,
      "qg": 0.23399999999999999,
      "qmax": 0.4,
      "qmin": 0.0,
      "ramp_10": 0.0,
      "ramp_30": 0.0,
      "ramp_agc": 0.0,
      "ramp_q": 0.0,
      "shutdown": 0.0,
      "source_id": [
        "gen",
        3
      ],
      "startup": 0.0,
      "vg": 1.01
    },
    "4": {
      "apf": 0.0,
      "cost": [
        100.0,
        4000.0,
        0.0
      ],
      "gen_bus": 6,
      "gen_status": 1,
      "index": 4,
      "mbase": 100.0,
      "model": 2,
      "ncost": 3,
      "pc1": 0.0,
      "pc2": 0.0,
      "pg": 0.0,
      "pmax": 1.0,
      "pmin": 0.0,
      "qc1max": 0.0,
      "qc1min": 0.0,
      "qc2max": 0.0,
      "qc2min": 0.0,
      "qg": 0.122,
      "qmax": 0.24,
      "qmin": -0.06,
      "ramp_10": 0.0,
      "ramp_30": 0.0,
      "ramp_agc": 0.0,
      "ramp_q": 0.0,
      "shutdown": 0.0,
      "source_id": [
        "gen",
        4
      ],
      "startup": 0.0,
      "vg": 1.07
    },
    "5": {
      "apf": 0.0,
      "cost": [
        100.0,
        4000.0,
        0.0
      ],
      "gen_bus": 8,
      "gen_status": 1,
      "index": 5,
      "mbase": 100.0,
      "model": 2,
      "ncost": 3,
      "pc1": 0.0,
      "pc2": 0.0,
      "pg": 0.0,
      "pmax": 1.0,
      "pmin": 0.0,
      "qc1max": 0.0,
      "qc1min": 0.0,
      "qc2max": 0.0,
      "qc2min": 0.0,
      "qg": 0.174,
      "qmax": 0.24,
      "qmin": -0.06,
      "ramp_10": 0.0,
      "ramp_30": 0.0,
      "ramp_agc": 0.0,
      "ramp_q": 0.0,
      "shutdown": 0.0,
      "source_id": [
        "gen",
        5
      ],
      "startup": 0.0,
      "vg": 1.09
    }
  },
  "load": {
    "1": {
      "index": 1,
      "load_bus": 2,
      "pd": 0.217,
      "qd": 0.127,
      "source_id": [
        "bus",
        2
      ],
      "status": 1
    },
    "10": {
      "index": 10,
      "load_bus": 13,
      "pd": 0.135,
      "qd": 0.057999999999999996,
      "source_id": [
        "bus",
        13
      ],
      "status": 1
    },
    "11": {
      "index": 11,
      "load_bus": 14,
      "pd": 0.149,
      "qd": 0.05,
      "source_id": [
        "bus",
        14
      ],
      "status": 1
    },
    "2": {
      "index": 2,
      "load_bus": 3,
      "pd": 0.9420000000000001,
      "qd": 0.19,
      "source_id": [
        "bus",
        3
      ],
      "status": 1
    },
    "3": {
      "index": 3,
      "load_bus": 4,
      "pd": 0.478,
      "qd": -0.039,
      "source_id": [
        "bus",
        4
      ],
      "status": 1
    },
    "4": {
      "index": 4,
      "load_bus": 5,
      "pd": 0.076,
      "qd": 0.016,
      "source_id": [
        "bus",
        5
      ],
      "status": 1
    },
    "5": {
      "index": 5,
      "load_bus": 6,
      "pd": 0.11199999999999999,
      "qd": 0.075,
      "source_id": [
        "bus",
        6
      ],
      "status": 1
    },
    "6": {
      "index": 6,
      "load_bus": 9,
      "pd": 0.295,
      "qd": 0.166,
      "source_id": [
        "bus",
        9
      ],
      "status": 1
    },
    "7": {
      "index": 7,
      "load_bus": 10,
      "pd": 0.09,
      "qd": 0.057999999999999996,
      "source_id": [
        "bus",
        10
      ],
      "status": 1
    },
    "8": {
      "index": 8,
      "load_bus": 11,
      "pd": 0.035,
      "qd": 0.018000000000000002,
      "source_id": [
        "bus",
        11
      ],
      "status": 1
    },
    "9": {
      "index": 9,
      "load_bus": 12,
      "pd": 0.061,
      "qd": 0.016,
      "source_id": [
        "bus",
        12
      ],
      "status": 1
    }
  },
  "name": "case14",
  "per_unit": true,
  "shunt": {
    "1": {
      "bs": 0.19,
      "gs": 0.0,
      "index": 1,
      "shunt_bus": 9,
      "source_id": [
        "bus",
        9
      ],
      "status": 1
    }
  },
  "source_type": "matpower",
  "source_version": "2",
  "storage": {},
  "switch": {}
}